data/case5_mat/case.m
% 5 bus radial network (Molly case1)
% tests bus_names

function tppmc = case5
tppmc.version = '1'

tppmc.baseMVA = 2.0;
tppmc.baseKV = 2.4;

%% bus data
%	bus_i	type	vmin_1	vmax_1	vmin_2	vmax_2	vmin_3	vmax_3	vm_1	va_1	vm_2	va_2	vm_3	va_3
tppmc.bus = [
	1	 3	 1.00	 1.00	 1.00	 1.00	 1.00	 1.00	 1.0000	 0.0000 	 1.0000	-120.0000	 1.0000	120.0000;
	2	 2	 0.90	 1.10	 0.90	 1.10	 0.90	 1.10	 0.9997	-0.0052 	 0.9999	-120.0098	 0.9997	119.9854;
	3	 2	 0.90	 1.10	 0.90	 1.10	 0.90	 1.10	 0.9968	-30.1766	 0.9982	-150.0927	 0.9988	89.7957;
	4	 2	 0.90	 1.10	 0.90	 1.10	 0.90	 1.10	 0.9826	-30.6336	 0.9903	-150.3243	 0.9911	89.1337;
	5	 2	 0.90	 1.10	 0.90	 1.10	 0.90	 1.10	 0.9740	-30.9294	 0.9859	-150.4455	 0.9872	88.7151;
];

%% load data
%	load_bus	pd_1	qd_1	pd_2	qd_2	pd_3	qd_3	status
tppmc.load = [
%	4	 0.0380	 0.0125	 0.0160	 0.0120	 0.0595	 0.0369	 1;
%	5	 0.0425	 0.0263	 0.027	 0.0131	 0.0950	 0.0312	 1;
];

%% generator data
%	gen_bus	pmin_1	pmax_1	qmin_1	qmax_1	pmin_2	pmax_2	qmin_2	qmax_2	pmin_3	pmax_3	qmin_3	qmax_3	pg_1	qg_1	pg_2	qg_2	pg_3	qg_3	status
tppmc.gen = [
	1	 0.0	 1	 -1	 1	 0.0	 1	 -1	 1	 0.0	 1	 -1	 1	 0.0742	 0.0758	 0.0776	 0.0146	 0.1290	 0.0482	 1;
	4	 0.0	 0.0	 -10	 10	 0.0	 0.0	 -10	 10	 0.0	 0.0	 -10	 10	 0.0	 0.0	 0.0	 0.0	 0.0	 0.0	 1;
];

%% generator cost data
%	2	startup	shutdown	n	c(n-1)	...	c0
tppmc.gencost = [
	2	 0.0	 0.0	 3	 0.110	 5.0	 0.0;
	2	 0.0	 0.0	 3	 0.110	 5.0	 0.0;
];

%% branch data
%	f_bus	t_bus	r_11	x_11	r_12	x_12	r_13	x_13	r_22	x_22	r_23	x_23	r_33	x_33   b_1    b_2    b_3    rate_a	rate_b	rate_c	angmin	angmax	status
tppmc.branch = [
	1	 2	 0.0012	 0.0027	 0.0008	 0.0022	 0.0008	 0.0022	 0.0012	 0.0027	 0.0008	 0.0022	 0.0012	 0.0027  0  0  0  9000	 0	 0	 -60.0	 60.0	 1;
	2	 3	 0.01	 0.06	 0.0	 0.0	 0.0	 0.0	 0.01	 0.06	 0.0	 0.0	 0.01	 0.06    0  0  0  9000	 0	 0	 -60.0	 60.0	 1;
	3	 4	 0.1063	 0.2177	 0.0	 0.0	 0.0	 0.0	 0.1063	 0.2177	 0.0	 0.0	 0.1063	 0.2177  0  0  0  9000	 0	 0	 -60.0	 60.0	 1;
	4	 5	 0.1063	 0.2177	 0.0	 0.0	 0.0	 0.0	 0.1063	 0.2177	 0.0	 0.0	 0.1063	 0.2177  0  0  0  9000	 0	 0	 -60.0	 60.0	 1;   
];